<?xml version='1.0' encoding='UTF-8'?>
<routes xmlns:xsi="http://www.w3.org/2001/XMLSchema-instance" xsi:noNamespaceSchemaLocation="http://sumo.dlr.de/xsd/routes_file.xsd">
	<vType id="CAR" accel="2.9" decel="4.5" sigma="0.5" length="5.0" minGap="2.5" maxSpeed="13.89" guiShape="passenger" width="1.8" vClass="passenger" />
	<vType id="TRUCK" accel="1.5" decel="3.5" sigma="0.5" length="12.0" minGap="3.0" maxSpeed="11.11" guiShape="truck" width="2.5" vClass="truck" />
	<vType id="MOTORCYCLE" accel="3.5" decel="5.0" sigma="0.5" length="2.5" minGap="1.5" maxSpeed="16.67" guiShape="motorcycle" width="0.8" vClass="motorcycle" />
	<trip id="veh_352" type="CAR" depart="5" from="edge_E_in" to="edge_W_out" />
	<trip id="veh_234" type="MOTORCYCLE" depart="6" from="edge_N_in" to="edge_W_out" />
	<trip id="veh_31" type="TRUCK" depart="8" from="edge_W_in" to="edge_S_out" />
	<trip id="veh_542" type="CAR" depart="11" from="edge_E_in" to="edge_S_out" />
	<trip id="veh_126" type="CAR" depart="13" from="edge_S_in" to="edge_N_out" />
	<trip id="veh_547" type="CAR" depart="19" from="edge_S_in" to="edge_E_out" />
	<trip id="veh_505" type="MOTORCYCLE" depart="23" from="edge_S_in" to="edge_E_out" />
	<trip id="veh_585" type="TRUCK" depart="24" from="edge_S_in" to="edge_E_out" />
	<trip id="veh_243" type="CAR" depart="25" from="edge_E_in" to="edge_S_out" />
	<trip id="veh_720" type="CAR" depart="25" from="edge_W_in" to="edge_N_out" />
	<trip id="veh_264" type="CAR" depart="26" from="edge_W_in" to="edge_S_out" />
	<trip id="veh_510" type="CAR" depart="32" from="edge_E_in" to="edge_N_out" />
	<trip id="veh_147" type="TRUCK" depart="39" from="edge_E_in" to="edge_N_out" />
	<trip id="veh_341" type="CAR" depart="40" from="edge_N_in" to="edge_E_out" />
	<trip id="veh_305" type="CAR" depart="41" from="edge_W_in" to="edge_S_out" />
	<trip id="veh_117" type="TRUCK" depart="46" from="edge_W_in" to="edge_S_out" />
	<trip id="veh_632" type="MOTORCYCLE" depart="48" from="edge_W_in" to="edge_E_out" />
	<trip id="veh_381" type="CAR" depart="51" from="edge_W_in" to="edge_N_out" />
	<trip id="veh_200" type="CAR" depart="52" from="edge_E_in" to="edge_W_out" />
	<trip id="veh_284" type="TRUCK" depart="52" from="edge_N_in" to="edge_W_out" />
	<trip id="veh_185" type="CAR" depart="54" from="edge_W_in" to="edge_S_out" />
	<trip id="veh_142" type="CAR" depart="61" from="edge_W_in" to="edge_S_out" />
	<trip id="veh_587" type="CAR" depart="62" from="edge_W_in" to="edge_E_out" />
	<trip id="veh_273" type="MOTORCYCLE" depart="63" from="edge_N_in" to="edge_W_out" />
	<trip id="veh_503" type="CAR" depart="70" from="edge_N_in" to="edge_W_out" />
	<trip id="veh_722" type="CAR" depart="70" from="edge_S_in" to="edge_N_out" />
	<trip id="veh_529" type="CAR" depart="72" from="edge_E_in" to="edge_S_out" />
	<trip id="veh_46" type="TRUCK" depart="74" from="edge_E_in" to="edge_N_out" />
	<trip id="veh_270" type="MOTORCYCLE" depart="74" from="edge_E_in" to="edge_N_out" />
	<trip id="veh_348" type="MOTORCYCLE" depart="75" from="edge_W_in" to="edge_N_out" />
	<trip id="veh_395" type="CAR" depart="75" from="edge_S_in" to="edge_W_out" />
	<trip id="veh_693" type="MOTORCYCLE" depart="75" from="edge_E_in" to="edge_N_out" />
	<trip id="veh_666" type="TRUCK" depart="80" from="edge_N_in" to="edge_S_out" />
	<trip id="veh_758" type="CAR" depart="85" from="edge_S_in" to="edge_W_out" />
	<trip id="veh_236" type="MOTORCYCLE" depart="87" from="edge_W_in" to="edge_S_out" />
	<trip id="veh_601" type="MOTORCYCLE" depart="90" from="edge_S_in" to="edge_N_out" />
	<trip id="veh_442" type="CAR" depart="96" from="edge_S_in" to="edge_W_out" />
	<trip id="veh_583" type="CAR" depart="97" from="edge_W_in" to="edge_E_out" />
	<trip id="veh_45" type="TRUCK" depart="100" from="edge_N_in" to="edge_W_out" />
	<trip id="veh_436" type="TRUCK" depart="100" from="edge_W_in" to="edge_E_out" />
	<trip id="veh_88" type="CAR" depart="102" from="edge_N_in" to="edge_W_out" />
	<trip id="veh_594" type="CAR" depart="104" from="edge_E_in" to="edge_W_out" />
	<trip id="veh_484" type="TRUCK" depart="110" from="edge_W_in" to="edge_E_out" />
	<trip id="veh_195" type="MOTORCYCLE" depart="113" from="edge_E_in" to="edge_N_out" />
	<trip id="veh_435" type="CAR" depart="113" from="edge_E_in" to="edge_W_out" />
	<trip id="veh_767" type="CAR" depart="113" from="edge_W_in" to="edge_N_out" />
	<trip id="veh_149" type="CAR" depart="118" from="edge_S_in" to="edge_W_out" />
	<trip id="veh_734" type="CAR" depart="122" from="edge_E_in" to="edge_S_out" />
	<trip id="veh_449" type="MOTORCYCLE" depart="126" from="edge_W_in" to="edge_N_out" />
	<trip id="veh_580" type="CAR" depart="127" from="edge_W_in" to="edge_N_out" />
	<trip id="veh_4" type="MOTORCYCLE" depart="128" from="edge_W_in" to="edge_S_out" />
	<trip id="veh_676" type="TRUCK" depart="128" from="edge_N_in" to="edge_E_out" />
	<trip id="veh_751" type="TRUCK" depart="133" from="edge_W_in" to="edge_N_out" />
	<trip id="veh_97" type="CAR" depart="136" from="edge_E_in" to="edge_S_out" />
	<trip id="veh_93" type="CAR" depart="139" from="edge_W_in" to="edge_S_out" />
	<trip id="veh_318" type="CAR" depart="139" from="edge_W_in" to="edge_S_out" />
	<trip id="veh_664" type="CAR" depart="141" from="edge_E_in" to="edge_W_out" />
	<trip id="veh_667" type="TRUCK" depart="142" from="edge_E_in" to="edge_N_out" />
	<trip id="veh_292" type="CAR" depart="148" from="edge_E_in" to="edge_W_out" />
	<trip id="veh_18" type="CAR" depart="149" from="edge_W_in" to="edge_S_out" />
	<trip id="veh_272" type="CAR" depart="149" from="edge_E_in" to="edge_W_out" />
	<trip id="veh_187" type="CAR" depart="156" from="edge_S_in" to="edge_N_out" />
	<trip id="veh_359" type="CAR" depart="159" from="edge_W_in" to="edge_N_out" />
	<trip id="veh_415" type="MOTORCYCLE" depart="160" from="edge_E_in" to="edge_S_out" />
	<trip id="veh_109" type="CAR" depart="163" from="edge_S_in" to="edge_W_out" />
	<trip id="veh_797" type="MOTORCYCLE" depart="165" from="edge_E_in" to="edge_N_out" />
	<trip id="veh_96" type="MOTORCYCLE" depart="166" from="edge_W_in" to="edge_N_out" />
	<trip id="veh_654" type="MOTORCYCLE" depart="166" from="edge_E_in" to="edge_W_out" />
	<trip id="veh_621" type="CAR" depart="174" from="edge_N_in" to="edge_E_out" />
	<trip id="veh_558" type="CAR" depart="177" from="edge_S_in" to="edge_E_out" />
	<trip id="veh_507" type="CAR" depart="185" from="edge_N_in" to="edge_W_out" />
	<trip id="veh_146" type="CAR" depart="187" from="edge_S_in" to="edge_E_out" />
	<trip id="veh_528" type="MOTORCYCLE" depart="187" from="edge_N_in" to="edge_S_out" />
	<trip id="veh_692" type="CAR" depart="190" from="edge_E_in" to="edge_N_out" />
	<trip id="veh_204" type="CAR" depart="191" from="edge_N_in" to="edge_S_out" />
	<trip id="veh_482" type="CAR" depart="191" from="edge_S_in" to="edge_W_out" />
	<trip id="veh_7" type="TRUCK" depart="192" from="edge_S_in" to="edge_N_out" />
	<trip id="veh_366" type="CAR" depart="192" from="edge_E_in" to="edge_S_out" />
	<trip id="veh_688" type="CAR" depart="193" from="edge_W_in" to="edge_N_out" />
	<trip id="veh_536" type="MOTORCYCLE" depart="194" from="edge_E_in" to="edge_W_out" />
	<trip id="veh_244" type="MOTORCYCLE" depart="195" from="edge_E_in" to="edge_S_out" />
	<trip id="veh_612" type="MOTORCYCLE" depart="197" from="edge_S_in" to="edge_W_out" />
	<trip id="veh_766" type="TRUCK" depart="199" from="edge_E_in" to="edge_N_out" />
	<trip id="veh_660" type="CAR" depart="201" from="edge_N_in" to="edge_E_out" />
	<trip id="veh_138" type="TRUCK" depart="203" from="edge_W_in" to="edge_S_out" />
	<trip id="veh_265" type="TRUCK" depart="203" from="edge_S_in" to="edge_E_out" />
	<trip id="veh_337" type="TRUCK" depart="205" from="edge_N_in" to="edge_W_out" />
	<trip id="veh_647" type="TRUCK" depart="206" from="edge_W_in" to="edge_S_out" />
	<trip id="veh_135" type="CAR" depart="210" from="edge_W_in" to="edge_N_out" />
	<trip id="veh_199" type="CAR" depart="211" from="edge_E_in" to="edge_W_out" />
	<trip id="veh_263" type="CAR" depart="211" from="edge_E_in" to="edge_S_out" />
	<trip id="veh_571" type="CAR" depart="211" from="edge_N_in" to="edge_E_out" />
	<trip id="veh_16" type="CAR" depart="213" from="edge_W_in" to="edge_S_out" />
	<trip id="veh_675" type="TRUCK" depart="215" from="edge_S_in" to="edge_W_out" />
	<trip id="veh_216" type="CAR" depart="216" from="edge_N_in" to="edge_E_out" />
	<trip id="veh_287" type="CAR" depart="216" from="edge_W_in" to="edge_S_out" />
	<trip id="veh_500" type="CAR" depart="219" from="edge_E_in" to="edge_W_out" />
	<trip id="veh_84" type="TRUCK" depart="224" from="edge_S_in" to="edge_N_out" />
	<trip id="veh_476" type="CAR" depart="225" from="edge_S_in" to="edge_W_out" />
	<trip id="veh_80" type="MOTORCYCLE" depart="227" from="edge_N_in" to="edge_W_out" />
	<trip id="veh_718" type="CAR" depart="227" from="edge_S_in" to="edge_N_out" />
	<trip id="veh_610" type="CAR" depart="229" from="edge_N_in" to="edge_E_out" />
	<trip id="veh_450" type="TRUCK" depart="232" from="edge_N_in" to="edge_W_out" />
	<trip id="veh_95" type="MOTORCYCLE" depart="237" from="edge_N_in" to="edge_W_out" />
	<trip id="veh_550" type="CAR" depart="237" from="edge_N_in" to="edge_W_out" />
	<trip id="veh_649" type="CAR" depart="238" from="edge_W_in" to="edge_S_out" />
	<trip id="veh_145" type="CAR" depart="240" from="edge_N_in" to="edge_S_out" />
	<trip id="veh_382" type="CAR" depart="242" from="edge_N_in" to="edge_E_out" />
	<trip id="veh_723" type="CAR" depart="250" from="edge_N_in" to="edge_E_out" />
	<trip id="veh_242" type="MOTORCYCLE" depart="254" from="edge_E_in" to="edge_N_out" />
	<trip id="veh_488" type="CAR" depart="254" from="edge_E_in" to="edge_W_out" />
	<trip id="veh_119" type="TRUCK" depart="257" from="edge_N_in" to="edge_W_out" />
	<trip id="veh_271" type="CAR" depart="257" from="edge_S_in" to="edge_W_out" />
	<trip id="veh_261" type="CAR" depart="260" from="edge_N_in" to="edge_W_out" />
	<trip id="veh_616" type="MOTORCYCLE" depart="261" from="edge_S_in" to="edge_W_out" />
	<trip id="veh_208" type="CAR" depart="262" from="edge_W_in" to="edge_S_out" />
	<trip id="veh_370" type="MOTORCYCLE" depart="264" from="edge_W_in" to="edge_N_out" />
	<trip id="veh_54" type="MOTORCYCLE" depart="266" from="edge_E_in" to="edge_S_out" />
	<trip id="veh_479" type="CAR" depart="266" from="edge_N_in" to="edge_W_out" />
	<trip id="veh_595" type="CAR" depart="266" from="edge_N_in" to="edge_E_out" />
	<trip id="veh_590" type="CAR" depart="268" from="edge_E_in" to="edge_N_out" />
	<trip id="veh_650" type="MOTORCYCLE" depart="269" from="edge_S_in" to="edge_N_out" />
	<trip id="veh_105" type="CAR" depart="271" from="edge_E_in" to="edge_W_out" />
	<trip id="veh_652" type="TRUCK" depart="271" from="edge_S_in" to="edge_N_out" />
	<trip id="veh_522" type="CAR" depart="272" from="edge_S_in" to="edge_N_out" />
	<trip id="veh_629" type="MOTORCYCLE" depart="272" from="edge_S_in" to="edge_W_out" />
	<trip id="veh_143" type="CAR" depart="275" from="edge_E_in" to="edge_W_out" />
	<trip id="veh_575" type="MOTORCYCLE" depart="275" from="edge_N_in" to="edge_S_out" />
	<trip id="veh_75" type="TRUCK" depart="276" from="edge_E_in" to="edge_N_out" />
	<trip id="veh_567" type="MOTORCYCLE" depart="276" from="edge_W_in" to="edge_S_out" />
	<trip id="veh_782" type="CAR" depart="284" from="edge_E_in" to="edge_S_out" />
	<trip id="veh_604" type="CAR" depart="285" from="edge_W_in" to="edge_N_out" />
	<trip id="veh_754" type="MOTORCYCLE" depart="292" from="edge_N_in" to="edge_E_out" />
	<trip id="veh_215" type="CAR" depart="293" from="edge_E_in" to="edge_W_out" />
	<trip id="veh_636" type="MOTORCYCLE" depart="294" from="edge_W_in" to="edge_E_out" />
	<trip id="veh_173" type="CAR" depart="296" from="edge_N_in" to="edge_W_out" />
	<trip id="veh_160" type="CAR" depart="297" from="edge_N_in" to="edge_E_out" />
	<trip id="veh_761" type="CAR" depart="300" from="edge_N_in" to="edge_E_out" />
	<trip id="veh_716" type="TRUCK" depart="305" from="edge_N_in" to="edge_E_out" />
	<trip id="veh_33" type="TRUCK" depart="306" from="edge_E_in" to="edge_S_out" />
	<trip id="veh_104" type="TRUCK" depart="307" from="edge_W_in" to="edge_S_out" />
	<trip id="veh_534" type="CAR" depart="308" from="edge_S_in" to="edge_N_out" />
	<trip id="veh_275" type="CAR" depart="312" from="edge_S_in" to="edge_W_out" />
	<trip id="veh_48" type="CAR" depart="315" from="edge_N_in" to="edge_S_out" />
	<trip id="veh_387" type="CAR" depart="315" from="edge_W_in" to="edge_N_out" />
	<trip id="veh_226" type="TRUCK" depart="316" from="edge_S_in" to="edge_E_out" />
	<trip id="veh_331" type="CAR" depart="320" from="edge_N_in" to="edge_W_out" />
	<trip id="veh_414" type="TRUCK" depart="325" from="edge_S_in" to="edge_W_out" />
	<trip id="veh_606" type="TRUCK" depart="326" from="edge_E_in" to="edge_S_out" />
	<trip id="veh_531" type="MOTORCYCLE" depart="330" from="edge_E_in" to="edge_W_out" />
	<trip id="veh_717" type="CAR" depart="330" from="edge_E_in" to="edge_S_out" />
	<trip id="veh_498" type="CAR" depart="338" from="edge_S_in" to="edge_E_out" />
	<trip id="veh_714" type="CAR" depart="338" from="edge_S_in" to="edge_E_out" />
	<trip id="veh_127" type="CAR" depart="340" from="edge_S_in" to="edge_W_out" />
	<trip id="veh_298" type="CAR" depart="340" from="edge_W_in" to="edge_S_out" />
	<trip id="veh_747" type="TRUCK" depart="340" from="edge_W_in" to="edge_E_out" />
	<trip id="veh_646" type="CAR" depart="341" from="edge_S_in" to="edge_W_out" />
	<trip id="veh_762" type="MOTORCYCLE" depart="341" from="edge_E_in" to="edge_N_out" />
	<trip id="veh_695" type="CAR" depart="342" from="edge_E_in" to="edge_S_out" />
	<trip id="veh_524" type="MOTORCYCLE" depart="343" from="edge_E_in" to="edge_S_out" />
	<trip id="veh_69" type="CAR" depart="346" from="edge_E_in" to="edge_W_out" />
	<trip id="veh_269" type="CAR" depart="346" from="edge_N_in" to="edge_E_out" />
	<trip id="veh_392" type="CAR" depart="348" from="edge_N_in" to="edge_S_out" />
	<trip id="veh_440" type="MOTORCYCLE" depart="354" from="edge_E_in" to="edge_N_out" />
	<trip id="veh_278" type="CAR" depart="357" from="edge_S_in" to="edge_N_out" />
	<trip id="veh_446" type="CAR" depart="357" from="edge_N_in" to="edge_S_out" />
	<trip id="veh_483" type="CAR" depart="357" from="edge_E_in" to="edge_N_out" />
	<trip id="veh_281" type="CAR" depart="360" from="edge_S_in" to="edge_W_out" />
	<trip id="veh_628" type="CAR" depart="363" from="edge_W_in" to="edge_E_out" />
	<trip id="veh_655" type="TRUCK" depart="364" from="edge_S_in" to="edge_E_out" />
	<trip id="veh_750" type="MOTORCYCLE" depart="364" from="edge_E_in" to="edge_N_out" />
	<trip id="veh_334" type="CAR" depart="365" from="edge_S_in" to="edge_E_out" />
	<trip id="veh_600" type="CAR" depart="367" from="edge_S_in" to="edge_E_out" />
	<trip id="veh_578" type="MOTORCYCLE" depart="369" from="edge_W_in" to="edge_N_out" />
	<trip id="veh_307" type="TRUCK" depart="370" from="edge_W_in" to="edge_S_out" />
	<trip id="veh_489" type="CAR" depart="373" from="edge_W_in" to="edge_S_out" />
	<trip id="veh_196" type="MOTORCYCLE" depart="375" from="edge_S_in" to="edge_E_out" />
	<trip id="veh_205" type="CAR" depart="378" from="edge_E_in" to="edge_S_out" />
	<trip id="veh_248" type="MOTORCYCLE" depart="378" from="edge_N_in" to="edge_E_out" />
	<trip id="veh_463" type="CAR" depart="380" from="edge_E_in" to="edge_S_out" />
	<trip id="veh_94" type="TRUCK" depart="382" from="edge_S_in" to="edge_E_out" />
	<trip id="veh_217" type="CAR" depart="382" from="edge_N_in" to="edge_W_out" />
	<trip id="veh_539" type="MOTORCYCLE" depart="382" from="edge_N_in" to="edge_S_out" />
	<trip id="veh_110" type="CAR" depart="383" from="edge_W_in" to="edge_E_out" />
	<trip id="veh_768" type="CAR" depart="385" from="edge_N_in" to="edge_W_out" />
	<trip id="veh_219" type="CAR" depart="386" from="edge_E_in" to="edge_W_out" />
	<trip id="veh_457" type="CAR" depart="387" from="edge_N_in" to="edge_S_out" />
	<trip id="veh_553" type="CAR" depart="388" from="edge_W_in" to="edge_S_out" />
	<trip id="veh_29" type="MOTORCYCLE" depart="394" from="edge_N_in" to="edge_E_out" />
	<trip id="veh_77" type="CAR" depart="394" from="edge_N_in" to="edge_E_out" />
	<trip id="veh_783" type="CAR" depart="401" from="edge_S_in" to="edge_N_out" />
	<trip id="veh_453" type="CAR" depart="403" from="edge_N_in" to="edge_S_out" />
	<trip id="veh_343" type="TRUCK" depart="405" from="edge_S_in" to="edge_W_out" />
	<trip id="veh_749" type="CAR" depart="406" from="edge_S_in" to="edge_E_out" />
	<trip id="veh_763" type="CAR" depart="408" from="edge_W_in" to="edge_N_out" />
	<trip id="veh_35" type="MOTORCYCLE" depart="410" from="edge_E_in" to="edge_S_out" />
	<trip id="veh_401" type="TRUCK" depart="412" from="edge_N_in" to="edge_W_out" />
	<trip id="veh_657" type="TRUCK" depart="412" from="edge_N_in" to="edge_E_out" />
	<trip id="veh_530" type="CAR" depart="413" from="edge_N_in" to="edge_E_out" />
	<trip id="veh_202" type="CAR" depart="416" from="edge_E_in" to="edge_N_out" />
	<trip id="veh_131" type="TRUCK" depart="417" from="edge_S_in" to="edge_W_out" />
	<trip id="veh_780" type="TRUCK" depart="417" from="edge_N_in" to="edge_W_out" />
	<trip id="veh_162" type="CAR" depart="420" from="edge_E_in" to="edge_N_out" />
	<trip id="veh_42" type="CAR" depart="423" from="edge_W_in" to="edge_E_out" />
	<trip id="veh_311" type="TRUCK" depart="423" from="edge_W_in" to="edge_E_out" />
	<trip id="veh_643" type="CAR" depart="424" from="edge_W_in" to="edge_N_out" />
	<trip id="veh_315" type="MOTORCYCLE" depart="425" from="edge_N_in" to="edge_W_out" />
	<trip id="veh_738" type="CAR" depart="426" from="edge_S_in" to="edge_W_out" />
	<trip id="veh_313" type="CAR" depart="427" from="edge_E_in" to="edge_N_out" />
	<trip id="veh_491" type="CAR" depart="429" from="edge_N_in" to="edge_E_out" />
	<trip id="veh_238" type="MOTORCYCLE" depart="432" from="edge_N_in" to="edge_E_out" />
	<trip id="veh_363" type="CAR" depart="432" from="edge_E_in" to="edge_W_out" />
	<trip id="veh_349" type="CAR" depart="436" from="edge_S_in" to="edge_E_out" />
	<trip id="veh_626" type="MOTORCYCLE" depart="436" from="edge_N_in" to="edge_E_out" />
	<trip id="veh_520" type="TRUCK" depart="440" from="edge_W_in" to="edge_S_out" />
	<trip id="veh_157" type="MOTORCYCLE" depart="441" from="edge_N_in" to="edge_W_out" />
	<trip id="veh_466" type="CAR" depart="442" from="edge_N_in" to="edge_W_out" />
	<trip id="veh_288" type="MOTORCYCLE" depart="445" from="edge_S_in" to="edge_N_out" />
	<trip id="veh_140" type="CAR" depart="446" from="edge_N_in" to="edge_S_out" />
	<trip id="veh_357" type="MOTORCYCLE" depart="449" from="edge_W_in" to="edge_S_out" />
	<trip id="veh_103" type="CAR" depart="450" from="edge_S_in" to="edge_W_out" />
	<trip id="veh_769" type="CAR" depart="451" from="edge_S_in" to="edge_E_out" />
	<trip id="veh_314" type="CAR" depart="454" from="edge_W_in" to="edge_E_out" />
	<trip id="veh_72" type="MOTORCYCLE" depart="456" from="edge_W_in" to="edge_N_out" />
	<trip id="veh_211" type="CAR" depart="456" from="edge_N_in" to="edge_W_out" />
	<trip id="veh_229" type="CAR" depart="460" from="edge_W_in" to="edge_S_out" />
	<trip id="veh_619" type="MOTORCYCLE" depart="461" from="edge_W_in" to="edge_E_out" />
	<trip id="veh_792" type="CAR" depart="462" from="edge_E_in" to="edge_S_out" />
	<trip id="veh_374" type="TRUCK" depart="464" from="edge_E_in" to="edge_W_out" />
	<trip id="veh_468" type="CAR" depart="465" from="edge_E_in" to="edge_W_out" />
	<trip id="veh_327" type="CAR" depart="477" from="edge_S_in" to="edge_N_out" />
	<trip id="veh_515" type="CAR" depart="478" from="edge_E_in" to="edge_S_out" />
	<trip id="veh_212" type="CAR" depart="479" from="edge_N_in" to="edge_W_out" />
	<trip id="veh_799" type="CAR" depart="488" from="edge_E_in" to="edge_W_out" />
	<trip id="veh_741" type="CAR" depart="493" from="edge_W_in" to="edge_N_out" />
	<trip id="veh_785" type="CAR" depart="494" from="edge_N_in" to="edge_S_out" />
	<trip id="veh_214" type="CAR" depart="495" from="edge_E_in" to="edge_N_out" />
	<trip id="veh_663" type="CAR" depart="498" from="edge_N_in" to="edge_E_out" />
	<trip id="veh_285" type="CAR" depart="500" from="edge_E_in" to="edge_N_out" />
	<trip id="veh_328" type="MOTORCYCLE" depart="504" from="edge_N_in" to="edge_E_out" />
	<trip id="veh_65" type="CAR" depart="510" from="edge_S_in" to="edge_W_out" />
	<trip id="veh_221" type="CAR" depart="519" from="edge_N_in" to="edge_E_out" />
	<trip id="veh_477" type="CAR" depart="521" from="edge_E_in" to="edge_N_out" />
	<trip id="veh_568" type="CAR" depart="521" from="edge_E_in" to="edge_N_out" />
	<trip id="veh_23" type="CAR" depart="529" from="edge_N_in" to="edge_W_out" />
	<trip id="veh_169" type="MOTORCYCLE" depart="532" from="edge_S_in" to="edge_E_out" />
	<trip id="veh_51" type="CAR" depart="538" from="edge_W_in" to="edge_S_out" />
	<trip id="veh_49" type="MOTORCYCLE" depart="540" from="edge_W_in" to="edge_N_out" />
	<trip id="veh_161" type="MOTORCYCLE" depart="540" from="edge_S_in" to="edge_E_out" />
	<trip id="veh_53" type="TRUCK" depart="543" from="edge_N_in" to="edge_W_out" />
	<trip id="veh_240" type="TRUCK" depart="552" from="edge_E_in" to="edge_N_out" />
	<trip id="veh_730" type="CAR" depart="553" from="edge_N_in" to="edge_E_out" />
	<trip id="veh_791" type="CAR" depart="557" from="edge_E_in" to="edge_S_out" />
	<trip id="veh_748" type="MOTORCYCLE" depart="559" from="edge_W_in" to="edge_E_out" />
	<trip id="veh_355" type="CAR" depart="560" from="edge_N_in" to="edge_W_out" />
	<trip id="veh_191" type="CAR" depart="561" from="edge_W_in" to="edge_N_out" />
	<trip id="veh_705" type="CAR" depart="567" from="edge_S_in" to="edge_W_out" />
	<trip id="veh_784" type="CAR" depart="570" from="edge_W_in" to="edge_N_out" />
	<trip id="veh_209" type="CAR" depart="572" from="edge_S_in" to="edge_N_out" />
	<trip id="veh_473" type="MOTORCYCLE" depart="572" from="edge_N_in" to="edge_S_out" />
	<trip id="veh_658" type="MOTORCYCLE" depart="574" from="edge_E_in" to="edge_W_out" />
	<trip id="veh_745" type="CAR" depart="574" from="edge_S_in" to="edge_E_out" />
	<trip id="veh_118" type="MOTORCYCLE" depart="575" from="edge_E_in" to="edge_S_out" />
	<trip id="veh_188" type="CAR" depart="576" from="edge_N_in" to="edge_W_out" />
	<trip id="veh_253" type="CAR" depart="576" from="edge_E_in" to="edge_S_out" />
	<trip id="veh_447" type="CAR" depart="579" from="edge_E_in" to="edge_S_out" />
	<trip id="veh_689" type="CAR" depart="582" from="edge_E_in" to="edge_N_out" />
	<trip id="veh_470" type="CAR" depart="583" from="edge_W_in" to="edge_E_out" />
	<trip id="veh_617" type="CAR" depart="585" from="edge_N_in" to="edge_S_out" />
	<trip id="veh_437" type="CAR" depart="591" from="edge_S_in" to="edge_W_out" />
	<trip id="veh_464" type="CAR" depart="591" from="edge_E_in" to="edge_N_out" />
	<trip id="veh_452" type="MOTORCYCLE" depart="593" from="edge_E_in" to="edge_W_out" />
	<trip id="veh_12" type="CAR" depart="596" from="edge_N_in" to="edge_E_out" />
	<trip id="veh_344" type="CAR" depart="598" from="edge_N_in" to="edge_W_out" />
	<trip id="veh_562" type="CAR" depart="601" from="edge_S_in" to="edge_W_out" />
	<trip id="veh_26" type="MOTORCYCLE" depart="603" from="edge_W_in" to="edge_E_out" />
	<trip id="veh_360" type="MOTORCYCLE" depart="606" from="edge_W_in" to="edge_E_out" />
	<trip id="veh_696" type="MOTORCYCLE" depart="606" from="edge_W_in" to="edge_E_out" />
	<trip id="veh_552" type="CAR" depart="612" from="edge_E_in" to="edge_N_out" />
	<trip id="veh_342" type="CAR" depart="615" from="edge_N_in" to="edge_W_out" />
	<trip id="veh_422" type="CAR" depart="617" from="edge_S_in" to="edge_N_out" />
	<trip id="veh_472" type="MOTORCYCLE" depart="620" from="edge_S_in" to="edge_N_out" />
	<trip id="veh_317" type="CAR" depart="621" from="edge_S_in" to="edge_W_out" />
	<trip id="veh_332" type="MOTORCYCLE" depart="623" from="edge_W_in" to="edge_S_out" />
	<trip id="veh_516" type="CAR" depart="627" from="edge_E_in" to="edge_W_out" />
	<trip id="veh_347" type="MOTORCYCLE" depart="630" from="edge_W_in" to="edge_N_out" />
	<trip id="veh_282" type="CAR" depart="636" from="edge_S_in" to="edge_W_out" />
	<trip id="veh_565" type="CAR" depart="636" from="edge_S_in" to="edge_E_out" />
	<trip id="veh_388" type="CAR" depart="637" from="edge_W_in" to="edge_E_out" />
	<trip id="veh_743" type="CAR" depart="637" from="edge_E_in" to="edge_S_out" />
	<trip id="veh_237" type="CAR" depart="638" from="edge_W_in" to="edge_S_out" />
	<trip id="veh_128" type="CAR" depart="641" from="edge_E_in" to="edge_S_out" />
	<trip id="veh_469" type="CAR" depart="642" from="edge_E_in" to="edge_N_out" />
	<trip id="veh_637" type="CAR" depart="646" from="edge_W_in" to="edge_E_out" />
	<trip id="veh_300" type="CAR" depart="649" from="edge_E_in" to="edge_S_out" />
	<trip id="veh_303" type="MOTORCYCLE" depart="656" from="edge_W_in" to="edge_N_out" />
	<trip id="veh_89" type="MOTORCYCLE" depart="659" from="edge_E_in" to="edge_W_out" />
	<trip id="veh_389" type="CAR" depart="661" from="edge_E_in" to="edge_S_out" />
	<trip id="veh_607" type="CAR" depart="661" from="edge_S_in" to="edge_N_out" />
	<trip id="veh_725" type="CAR" depart="665" from="edge_E_in" to="edge_S_out" />
	<trip id="veh_409" type="MOTORCYCLE" depart="668" from="edge_E_in" to="edge_S_out" />
	<trip id="veh_83" type="MOTORCYCLE" depart="669" from="edge_S_in" to="edge_W_out" />
	<trip id="veh_402" type="CAR" depart="669" from="edge_E_in" to="edge_S_out" />
	<trip id="veh_320" type="MOTORCYCLE" depart="674" from="edge_S_in" to="edge_W_out" />
	<trip id="veh_499" type="CAR" depart="675" from="edge_W_in" to="edge_N_out" />
	<trip id="veh_541" type="CAR" depart="675" from="edge_W_in" to="edge_E_out" />
	<trip id="veh_108" type="CAR" depart="678" from="edge_E_in" to="edge_S_out" />
	<trip id="veh_526" type="CAR" depart="678" from="edge_E_in" to="edge_S_out" />
	<trip id="veh_66" type="CAR" depart="679" from="edge_S_in" to="edge_W_out" />
	<trip id="veh_710" type="CAR" depart="679" from="edge_E_in" to="edge_W_out" />
	<trip id="veh_114" type="CAR" depart="682" from="edge_S_in" to="edge_N_out" />
	<trip id="veh_713" type="MOTORCYCLE" depart="682" from="edge_N_in" to="edge_W_out" />
	<trip id="veh_184" type="TRUCK" depart="686" from="edge_S_in" to="edge_N_out" />
	<trip id="veh_549" type="MOTORCYCLE" depart="691" from="edge_N_in" to="edge_S_out" />
	<trip id="veh_694" type="MOTORCYCLE" depart="693" from="edge_N_in" to="edge_S_out" />
	<trip id="veh_256" type="CAR" depart="697" from="edge_W_in" to="edge_S_out" />
	<trip id="veh_559" type="CAR" depart="700" from="edge_S_in" to="edge_N_out" />
	<trip id="veh_699" type="MOTORCYCLE" depart="708" from="edge_N_in" to="edge_S_out" />
	<trip id="veh_724" type="TRUCK" depart="709" from="edge_S_in" to="edge_W_out" />
	<trip id="veh_794" type="CAR" depart="717" from="edge_E_in" to="edge_S_out" />
	<trip id="veh_107" type="TRUCK" depart="718" from="edge_E_in" to="edge_W_out" />
	<trip id="veh_581" type="TRUCK" depart="720" from="edge_W_in" to="edge_E_out" />
	<trip id="veh_786" type="CAR" depart="721" from="edge_N_in" to="edge_E_out" />
	<trip id="veh_254" type="CAR" depart="725" from="edge_N_in" to="edge_W_out" />
	<trip id="veh_329" type="CAR" depart="727" from="edge_S_in" to="edge_E_out" />
	<trip id="veh_564" type="CAR" depart="727" from="edge_W_in" to="edge_E_out" />
	<trip id="veh_493" type="MOTORCYCLE" depart="729" from="edge_N_in" to="edge_W_out" />
	<trip id="veh_501" type="MOTORCYCLE" depart="732" from="edge_S_in" to="edge_W_out" />
	<trip id="veh_92" type="MOTORCYCLE" depart="733" from="edge_N_in" to="edge_E_out" />
	<trip id="veh_297" type="CAR" depart="734" from="edge_S_in" to="edge_W_out" />
	<trip id="veh_369" type="CAR" depart="736" from="edge_N_in" to="edge_E_out" />
	<trip id="veh_399" type="CAR" depart="736" from="edge_N_in" to="edge_E_out" />
	<trip id="veh_47" type="CAR" depart="737" from="edge_E_in" to="edge_S_out" />
	<trip id="veh_777" type="TRUCK" depart="738" from="edge_W_in" to="edge_N_out" />
	<trip id="veh_262" type="CAR" depart="739" from="edge_S_in" to="edge_W_out" />
	<trip id="veh_206" type="CAR" depart="748" from="edge_N_in" to="edge_E_out" />
	<trip id="veh_651" type="TRUCK" depart="748" from="edge_W_in" to="edge_N_out" />
	<trip id="veh_61" type="MOTORCYCLE" depart="749" from="edge_S_in" to="edge_N_out" />
	<trip id="veh_113" type="CAR" depart="752" from="edge_N_in" to="edge_E_out" />
	<trip id="veh_134" type="CAR" depart="760" from="edge_N_in" to="edge_W_out" />
	<trip id="veh_555" type="MOTORCYCLE" depart="761" from="edge_S_in" to="edge_E_out" />
	<trip id="veh_87" type="CAR" depart="763" from="edge_N_in" to="edge_E_out" />
	<trip id="veh_32" type="CAR" depart="765" from="edge_N_in" to="edge_S_out" />
	<trip id="veh_662" type="CAR" depart="767" from="edge_E_in" to="edge_S_out" />
	<trip id="veh_492" type="MOTORCYCLE" depart="770" from="edge_E_in" to="edge_W_out" />
	<trip id="veh_291" type="TRUCK" depart="774" from="edge_N_in" to="edge_E_out" />
	<trip id="veh_228" type="MOTORCYCLE" depart="777" from="edge_N_in" to="edge_W_out" />
	<trip id="veh_129" type="CAR" depart="779" from="edge_W_in" to="edge_S_out" />
	<trip id="veh_461" type="CAR" depart="779" from="edge_E_in" to="edge_W_out" />
	<trip id="veh_60" type="TRUCK" depart="780" from="edge_E_in" to="edge_S_out" />
	<trip id="veh_241" type="CAR" depart="780" from="edge_S_in" to="edge_W_out" />
	<trip id="veh_708" type="TRUCK" depart="781" from="edge_N_in" to="edge_E_out" />
	<trip id="veh_441" type="TRUCK" depart="782" from="edge_E_in" to="edge_W_out" />
	<trip id="veh_574" type="CAR" depart="786" from="edge_W_in" to="edge_N_out" />
	<trip id="veh_677" type="MOTORCYCLE" depart="787" from="edge_S_in" to="edge_W_out" />
	<trip id="veh_163" type="CAR" depart="788" from="edge_E_in" to="edge_N_out" />
	<trip id="veh_5" type="CAR" depart="793" from="edge_W_in" to="edge_N_out" />
	<trip id="veh_772" type="CAR" depart="793" from="edge_N_in" to="edge_W_out" />
	<trip id="veh_176" type="MOTORCYCLE" depart="794" from="edge_W_in" to="edge_N_out" />