<?xml version='1.0' encoding='UTF-8'?>
<routes xmlns:xsi="http://www.w3.org/2001/XMLSchema-instance" xsi:noNamespaceSchemaLocation="http://sumo.dlr.de/xsd/routes_file.xsd">
	<vType id="DEFAULT_CAR" accel="2.9" decel="4.5" sigma="0.5" length="5.0" minGap="2.5" maxSpeed="13.89" guiShape="passenger" />
	<trip id="veh_275" type="DEFAULT_CAR" depart="4" from="edge_E_in" to="edge_S_out" />
	<trip id="veh_84" type="DEFAULT_CAR" depart="17" from="edge_N_in" to="edge_S_out" />
	<trip id="veh_158" type="DEFAULT_CAR" depart="17" from="edge_E_in" to="edge_W_out" />
	<trip id="veh_272" type="DEFAULT_CAR" depart="18" from="edge_N_in" to="edge_S_out" />
	<trip id="veh_53" type="DEFAULT_CAR" depart="20" from="edge_E_in" to="edge_W_out" />
	<trip id="veh_372" type="DEFAULT_CAR" depart="20" from="edge_N_in" to="edge_S_out" />
	<trip id="veh_14" type="DEFAULT_CAR" depart="27" from="edge_W_in" to="edge_W_out" />
	<trip id="veh_384" type="DEFAULT_CAR" depart="30" from="edge_W_in" to="edge_N_out" />
	<trip id="veh_276" type="DEFAULT_CAR" depart="34" from="edge_W_in" to="edge_S_out" />
	<trip id="veh_31" type="DEFAULT_CAR" depart="37" from="edge_N_in" to="edge_N_out" />
	<trip id="veh_72" type="DEFAULT_CAR" depart="40" from="edge_W_in" to="edge_W_out" />
	<trip id="veh_311" type="DEFAULT_CAR" depart="40" from="edge_S_in" to="edge_N_out" />
	<trip id="veh_43" type="DEFAULT_CAR" depart="41" from="edge_W_in" to="edge_W_out" />
	<trip id="veh_20" type="DEFAULT_CAR" depart="48" from="edge_S_in" to="edge_E_out" />
	<trip id="veh_363" type="DEFAULT_CAR" depart="48" from="edge_E_in" to="edge_S_out" />
	<trip id="veh_383" type="DEFAULT_CAR" depart="48" from="edge_W_in" to="edge_E_out" />
	<trip id="veh_205" type="DEFAULT_CAR" depart="51" from="edge_N_in" to="edge_S_out" />
	<trip id="veh_38" type="DEFAULT_CAR" depart="52" from="edge_N_in" to="edge_N_out" />
	<trip id="veh_239" type="DEFAULT_CAR" depart="63" from="edge_N_in" to="edge_S_out" />
	<trip id="veh_261" type="DEFAULT_CAR" depart="64" from="edge_E_in" to="edge_E_out" />
	<trip id="veh_120" type="DEFAULT_CAR" depart="65" from="edge_N_in" to="edge_N_out" />
	<trip id="veh_145" type="DEFAULT_CAR" depart="70" from="edge_N_in" to="edge_S_out" />
	<trip id="veh_399" type="DEFAULT_CAR" depart="78" from="edge_N_in" to="edge_S_out" />
	<trip id="veh_7" type="DEFAULT_CAR" depart="80" from="edge_E_in" to="edge_W_out" />
	<trip id="veh_148" type="DEFAULT_CAR" depart="81" from="edge_S_in" to="edge_E_out" />
	<trip id="veh_55" type="DEFAULT_CAR" depart="82" from="edge_W_in" to="edge_N_out" />
	<trip id="veh_184" type="DEFAULT_CAR" depart="86" from="edge_S_in" to="edge_W_out" />
	<trip id="veh_150" type="DEFAULT_CAR" depart="88" from="edge_S_in" to="edge_S_out" />
	<trip id="veh_386" type="DEFAULT_CAR" depart="90" from="edge_N_in" to="edge_N_out" />
	<trip id="veh_22" type="DEFAULT_CAR" depart="91" from="edge_W_in" to="edge_S_out" />
	<trip id="veh_237" type="DEFAULT_CAR" depart="93" from="edge_S_in" to="edge_E_out" />
	<trip id="veh_265" type="DEFAULT_CAR" depart="99" from="edge_E_in" to="edge_S_out" />
	<trip id="veh_381" type="DEFAULT_CAR" depart="99" from="edge_W_in" to="edge_E_out" />
	<trip id="veh_333" type="DEFAULT_CAR" depart="101" from="edge_E_in" to="edge_S_out" />
	<trip id="veh_389" type="DEFAULT_CAR" depart="101" from="edge_N_in" to="edge_N_out" />
	<trip id="veh_44" type="DEFAULT_CAR" depart="104" from="edge_W_in" to="edge_S_out" />
	<trip id="veh_104" type="DEFAULT_CAR" depart="105" from="edge_N_in" to="edge_W_out" />
	<trip id="veh_40" type="DEFAULT_CAR" depart="108" from="edge_N_in" to="edge_N_out" />
	<trip id="veh_349" type="DEFAULT_CAR" depart="117" from="edge_S_in" to="edge_E_out" />
	<trip id="veh_98" type="DEFAULT_CAR" depart="122" from="edge_E_in" to="edge_E_out" />
	<trip id="veh_162" type="DEFAULT_CAR" depart="122" from="edge_E_in" to="edge_E_out" />
	<trip id="veh_82" type="DEFAULT_CAR" depart="124" from="edge_N_in" to="edge_N_out" />
	<trip id="veh_155" type="DEFAULT_CAR" depart="127" from="edge_N_in" to="edge_E_out" />
	<trip id="veh_354" type="DEFAULT_CAR" depart="133" from="edge_S_in" to="edge_S_out" />
	<trip id="veh_258" type="DEFAULT_CAR" depart="135" from="edge_W_in" to="edge_N_out" />
	<trip id="veh_287" type="DEFAULT_CAR" depart="137" from="edge_W_in" to="edge_E_out" />
	<trip id="veh_217" type="DEFAULT_CAR" depart="141" from="edge_S_in" to="edge_W_out" />
	<trip id="veh_18" type="DEFAULT_CAR" depart="144" from="edge_E_in" to="edge_S_out" />
	<trip id="veh_360" type="DEFAULT_CAR" depart="158" from="edge_E_in" to="edge_N_out" />
	<trip id="veh_13" type="DEFAULT_CAR" depart="162" from="edge_N_in" to="edge_W_out" />
	<trip id="veh_297" type="DEFAULT_CAR" depart="163" from="edge_E_in" to="edge_S_out" />
	<trip id="veh_180" type="DEFAULT_CAR" depart="164" from="edge_N_in" to="edge_S_out" />
	<trip id="veh_304" type="DEFAULT_CAR" depart="168" from="edge_S_in" to="edge_E_out" />
	<trip id="veh_267" type="DEFAULT_CAR" depart="171" from="edge_N_in" to="edge_S_out" />
	<trip id="veh_130" type="DEFAULT_CAR" depart="172" from="edge_S_in" to="edge_W_out" />
	<trip id="veh_90" type="DEFAULT_CAR" depart="177" from="edge_W_in" to="edge_S_out" />
	<trip id="veh_128" type="DEFAULT_CAR" depart="178" from="edge_E_in" to="edge_W_out" />
	<trip id="veh_291" type="DEFAULT_CAR" depart="179" from="edge_N_in" to="edge_W_out" />
	<trip id="veh_335" type="DEFAULT_CAR" depart="179" from="edge_N_in" to="edge_E_out" />
	<trip id="veh_35" type="DEFAULT_CAR" depart="188" from="edge_W_in" to="edge_S_out" />
	<trip id="veh_361" type="DEFAULT_CAR" depart="189" from="edge_W_in" to="edge_S_out" />
	<trip id="veh_33" type="DEFAULT_CAR" depart="190" from="edge_E_in" to="edge_S_out" />
	<trip id="veh_382" type="DEFAULT_CAR" depart="190" from="edge_N_in" to="edge_S_out" />
	<trip id="veh_288" type="DEFAULT_CAR" depart="199" from="edge_S_in" to="edge_W_out" />
	<trip id="veh_204" type="DEFAULT_CAR" depart="201" from="edge_S_in" to="edge_S_out" />
	<trip id="veh_244" type="DEFAULT_CAR" depart="201" from="edge_E_in" to="edge_S_out" />
	<trip id="veh_107" type="DEFAULT_CAR" depart="205" from="edge_N_in" to="edge_S_out" />
	<trip id="veh_240" type="DEFAULT_CAR" depart="205" from="edge_W_in" to="edge_E_out" />
	<trip id="veh_246" type="DEFAULT_CAR" depart="211" from="edge_N_in" to="edge_E_out" />
	<trip id="veh_141" type="DEFAULT_CAR" depart="215" from="edge_W_in" to="edge_N_out" />
	<trip id="veh_324" type="DEFAULT_CAR" depart="217" from="edge_E_in" to="edge_S_out" />
	<trip id="veh_206" type="DEFAULT_CAR" depart="223" from="edge_N_in" to="edge_N_out" />
	<trip id="veh_254" type="DEFAULT_CAR" depart="224" from="edge_S_in" to="edge_E_out" />
	<trip id="veh_252" type="DEFAULT_CAR" depart="226" from="edge_S_in" to="edge_S_out" />
	<trip id="veh_266" type="DEFAULT_CAR" depart="226" from="edge_N_in" to="edge_E_out" />
	<trip id="veh_238" type="DEFAULT_CAR" depart="227" from="edge_E_in" to="edge_E_out" />
	<trip id="veh_178" type="DEFAULT_CAR" depart="236" from="edge_N_in" to="edge_S_out" />
	<trip id="veh_137" type="DEFAULT_CAR" depart="243" from="edge_E_in" to="edge_N_out" />
	<trip id="veh_87" type="DEFAULT_CAR" depart="246" from="edge_N_in" to="edge_S_out" />
	<trip id="veh_253" type="DEFAULT_CAR" depart="246" from="edge_W_in" to="edge_N_out" />
	<trip id="veh_165" type="DEFAULT_CAR" depart="249" from="edge_W_in" to="edge_E_out" />
	<trip id="veh_312" type="DEFAULT_CAR" depart="263" from="edge_E_in" to="edge_E_out" />
	<trip id="veh_50" type="DEFAULT_CAR" depart="265" from="edge_W_in" to="edge_E_out" />
	<trip id="veh_163" type="DEFAULT_CAR" depart="265" from="edge_S_in" to="edge_N_out" />
	<trip id="veh_192" type="DEFAULT_CAR" depart="269" from="edge_S_in" to="edge_E_out" />
	<trip id="veh_308" type="DEFAULT_CAR" depart="269" from="edge_E_in" to="edge_N_out" />
	<trip id="veh_222" type="DEFAULT_CAR" depart="272" from="edge_E_in" to="edge_W_out" />
	<trip id="veh_65" type="DEFAULT_CAR" depart="280" from="edge_N_in" to="edge_W_out" />
	<trip id="veh_197" type="DEFAULT_CAR" depart="280" from="edge_S_in" to="edge_S_out" />
	<trip id="veh_223" type="DEFAULT_CAR" depart="286" from="edge_W_in" to="edge_N_out" />
	<trip id="veh_270" type="DEFAULT_CAR" depart="289" from="edge_N_in" to="edge_W_out" />
	<trip id="veh_127" type="DEFAULT_CAR" depart="292" from="edge_S_in" to="edge_N_out" />
	<trip id="veh_257" type="DEFAULT_CAR" depart="294" from="edge_W_in" to="edge_E_out" />
	<trip id="veh_388" type="DEFAULT_CAR" depart="303" from="edge_E_in" to="edge_W_out" />
	<trip id="veh_99" type="DEFAULT_CAR" depart="304" from="edge_N_in" to="edge_W_out" />
	<trip id="veh_25" type="DEFAULT_CAR" depart="305" from="edge_N_in" to="edge_W_out" />
	<trip id="veh_215" type="DEFAULT_CAR" depart="307" from="edge_S_in" to="edge_N_out" />
	<trip id="veh_0" type="DEFAULT_CAR" depart="309" from="edge_N_in" to="edge_E_out" />
	<trip id="veh_234" type="DEFAULT_CAR" depart="315" from="edge_N_in" to="edge_N_out" />
	<trip id="veh_186" type="DEFAULT_CAR" depart="316" from="edge_N_in" to="edge_N_out" />
	<trip id="veh_232" type="DEFAULT_CAR" depart="316" from="edge_S_in" to="edge_S_out" />
	<trip id="veh_336" type="DEFAULT_CAR" depart="316" from="edge_N_in" to="edge_S_out" />
	<trip id="veh_21" type="DEFAULT_CAR" depart="318" from="edge_E_in" to="edge_S_out" />
	<trip id="veh_34" type="DEFAULT_CAR" depart="320" from="edge_N_in" to="edge_W_out" />
	<trip id="veh_49" type="DEFAULT_CAR" depart="320" from="edge_E_in" to="edge_E_out" />
	<trip id="veh_160" type="DEFAULT_CAR" depart="320" from="edge_S_in" to="edge_E_out" />
	<trip id="veh_172" type="DEFAULT_CAR" depart="328" from="edge_W_in" to="edge_W_out" />
	<trip id="veh_208" type="DEFAULT_CAR" depart="328" from="edge_W_in" to="edge_S_out" />
	<trip id="veh_185" type="DEFAULT_CAR" depart="329" from="edge_W_in" to="edge_E_out" />
	<trip id="veh_95" type="DEFAULT_CAR" depart="332" from="edge_S_in" to="edge_W_out" />
	<trip id="veh_73" type="DEFAULT_CAR" depart="339" from="edge_W_in" to="edge_N_out" />
	<trip id="veh_164" type="DEFAULT_CAR" depart="345" from="edge_E_in" to="edge_S_out" />
	<trip id="veh_259" type="DEFAULT_CAR" depart="345" from="edge_W_in" to="edge_W_out" />
	<trip id="veh_3" type="DEFAULT_CAR" depart="351" from="edge_E_in" to="edge_N_out" />
	<trip id="veh_131" type="DEFAULT_CAR" depart="351" from="edge_E_in" to="edge_E_out" />
	<trip id="veh_342" type="DEFAULT_CAR" depart="351" from="edge_S_in" to="edge_S_out" />
	<trip id="veh_305" type="DEFAULT_CAR" depart="356" from="edge_W_in" to="edge_E_out" />
	<trip id="veh_346" type="DEFAULT_CAR" depart="358" from="edge_N_in" to="edge_N_out" />
	<trip id="veh_271" type="DEFAULT_CAR" depart="362" from="edge_W_in" to="edge_E_out" />
	<trip id="veh_41" type="DEFAULT_CAR" depart="371" from="edge_N_in" to="edge_E_out" />
	<trip id="veh_357" type="DEFAULT_CAR" depart="371" from="edge_S_in" to="edge_S_out" />
	<trip id="veh_159" type="DEFAULT_CAR" depart="377" from="edge_W_in" to="edge_N_out" />
	<trip id="veh_9" type="DEFAULT_CAR" depart="379" from="edge_N_in" to="edge_E_out" />
	<trip id="veh_318" type="DEFAULT_CAR" depart="382" from="edge_E_in" to="edge_E_out" />
	<trip id="veh_281" type="DEFAULT_CAR" depart="383" from="edge_N_in" to="edge_W_out" />
	<trip id="veh_314" type="DEFAULT_CAR" depart="386" from="edge_S_in" to="edge_W_out" />
	<trip id="veh_16" type="DEFAULT_CAR" depart="393" from="edge_N_in" to="edge_E_out" />
	<trip id="veh_17" type="DEFAULT_CAR" depart="394" from="edge_E_in" to="edge_N_out" />
	<trip id="veh_39" type="DEFAULT_CAR" depart="398" from="edge_W_in" to="edge_N_out" />
	<trip id="veh_112" type="DEFAULT_CAR" depart="402" from="edge_N_in" to="edge_S_out" />
	<trip id="veh_207" type="DEFAULT_CAR" depart="402" from="edge_E_in" to="edge_E_out" />
	<trip id="veh_77" type="DEFAULT_CAR" depart="409" from="edge_E_in" to="edge_E_out" />
	<trip id="veh_277" type="DEFAULT_CAR" depart="411" from="edge_N_in" to="edge_E_out" />
	<trip id="veh_268" type="DEFAULT_CAR" depart="415" from="edge_W_in" to="edge_W_out" />
	<trip id="veh_296" type="DEFAULT_CAR" depart="419" from="edge_N_in" to="edge_E_out" />
	<trip id="veh_199" type="DEFAULT_CAR" depart="421" from="edge_N_in" to="edge_E_out" />
	<trip id="veh_109" type="DEFAULT_CAR" depart="422" from="edge_N_in" to="edge_W_out" />
	<trip id="veh_118" type="DEFAULT_CAR" depart="427" from="edge_W_in" to="edge_E_out" />
	<trip id="veh_392" type="DEFAULT_CAR" depart="443" from="edge_W_in" to="edge_W_out" />
	<trip id="veh_156" type="DEFAULT_CAR" depart="444" from="edge_S_in" to="edge_S_out" />
	<trip id="veh_327" type="DEFAULT_CAR" depart="444" from="edge_W_in" to="edge_N_out" />
	<trip id="veh_211" type="DEFAULT_CAR" depart="445" from="edge_W_in" to="edge_S_out" />
	<trip id="veh_1" type="DEFAULT_CAR" depart="447" from="edge_S_in" to="edge_S_out" />
	<trip id="veh_216" type="DEFAULT_CAR" depart="447" from="edge_W_in" to="edge_W_out" />
	<trip id="veh_36" type="DEFAULT_CAR" depart="448" from="edge_N_in" to="edge_W_out" />
	<trip id="veh_196" type="DEFAULT_CAR" depart="460" from="edge_S_in" to="edge_S_out" />
	<trip id="veh_198" type="DEFAULT_CAR" depart="461" from="edge_N_in" to="edge_W_out" />
	<trip id="veh_115" type="DEFAULT_CAR" depart="464" from="edge_S_in" to="edge_W_out" />
	<trip id="veh_302" type="DEFAULT_CAR" depart="464" from="edge_N_in" to="edge_W_out" />
	<trip id="veh_183" type="DEFAULT_CAR" depart="468" from="edge_W_in" to="edge_E_out" />
	<trip id="veh_390" type="DEFAULT_CAR" depart="469" from="edge_W_in" to="edge_E_out" />
	<trip id="veh_365" type="DEFAULT_CAR" depart="473" from="edge_E_in" to="edge_W_out" />
	<trip id="veh_278" type="DEFAULT_CAR" depart="487" from="edge_E_in" to="edge_E_out" />
	<trip id="veh_113" type="DEFAULT_CAR" depart="492" from="edge_W_in" to="edge_W_out" />
	<trip id="veh_122" type="DEFAULT_CAR" depart="495" from="edge_N_in" to="edge_N_out" />
	<trip id="veh_338" type="DEFAULT_CAR" depart="499" from="edge_S_in" to="edge_E_out" />
	<trip id="veh_370" type="DEFAULT_CAR" depart="501" from="edge_E_in" to="edge_W_out" />
	<trip id="veh_64" type="DEFAULT_CAR" depart="506" from="edge_S_in" to="edge_E_out" />
	<trip id="veh_362" type="DEFAULT_CAR" depart="509" from="edge_S_in" to="edge_S_out" />
	<trip id="veh_108" type="DEFAULT_CAR" depart="510" from="edge_N_in" to="edge_W_out" />
	<trip id="veh_247" type="DEFAULT_CAR" depart="514" from="edge_N_in" to="edge_N_out" />
	<trip id="veh_263" type="DEFAULT_CAR" depart="515" from="edge_S_in" to="edge_W_out" />
	<trip id="veh_67" type="DEFAULT_CAR" depart="516" from="edge_N_in" to="edge_S_out" />
	<trip id="veh_369" type="DEFAULT_CAR" depart="518" from="edge_W_in" to="edge_W_out" />
	<trip id="veh_316" type="DEFAULT_CAR" depart="519" from="edge_S_in" to="edge_N_out" />
	<trip id="veh_319" type="DEFAULT_CAR" depart="519" from="edge_N_in" to="edge_N_out" />
	<trip id="veh_78" type="DEFAULT_CAR" depart="524" from="edge_E_in" to="edge_W_out" />
	<trip id="veh_323" type="DEFAULT_CAR" depart="526" from="edge_N_in" to="edge_S_out" />
	<trip id="veh_286" type="DEFAULT_CAR" depart="530" from="edge_S_in" to="edge_W_out" />
	<trip id="veh_337" type="DEFAULT_CAR" depart="531" from="edge_W_in" to="edge_W_out" />
	<trip id="veh_168" type="DEFAULT_CAR" depart="534" from="edge_S_in" to="edge_N_out" />
	<trip id="veh_374" type="DEFAULT_CAR" depart="546" from="edge_W_in" to="edge_E_out" />
	<trip id="veh_395" type="DEFAULT_CAR" depart="546" from="edge_W_in" to="edge_W_out" />
	<trip id="veh_116" type="DEFAULT_CAR" depart="549" from="edge_W_in" to="edge_N_out" />
	<trip id="veh_121" type="DEFAULT_CAR" depart="551" from="edge_W_in" to="edge_S_out" />
	<trip id="veh_260" type="DEFAULT_CAR" depart="570" from="edge_W_in" to="edge_E_out" />
	<trip id="veh_157" type="DEFAULT_CAR" depart="572" from="edge_N_in" to="edge_E_out" />
	<trip id="veh_298" type="DEFAULT_CAR" depart="573" from="edge_E_in" to="edge_E_out" />
	<trip id="veh_195" type="DEFAULT_CAR" depart="575" from="edge_N_in" to="edge_W_out" />
	<trip id="veh_212" type="DEFAULT_CAR" depart="577" from="edge_S_in" to="edge_W_out" />
	<trip id="veh_344" type="DEFAULT_CAR" depart="581" from="edge_N_in" to="edge_N_out" />
	<trip id="veh_8" type="DEFAULT_CAR" depart="582" from="edge_W_in" to="edge_N_out" />
	<trip id="veh_194" type="DEFAULT_CAR" depart="582" from="edge_N_in" to="edge_S_out" />
	<trip id="veh_218" type="DEFAULT_CAR" depart="584" from="edge_N_in" to="edge_E_out" />
	<trip id="veh_103" type="DEFAULT_CAR" depart="588" from="edge_N_in" to="edge_E_out" />
	<trip id="veh_274" type="DEFAULT_CAR" depart="589" from="edge_S_in" to="edge_W_out" />
	<trip id="veh_387" type="DEFAULT_CAR" depart="590" from="edge_W_in" to="edge_N_out" />
	<trip id="veh_134" type="DEFAULT_CAR" depart="591" from="edge_W_in" to="edge_E_out" />
	<trip id="veh_170" type="DEFAULT_CAR" depart="592" from="edge_E_in" to="edge_W_out" />
	<trip id="veh_11" type="DEFAULT_CAR" depart="593" from="edge_W_in" to="edge_E_out" />
	<trip id="veh_5" type="DEFAULT_CAR" depart="594" from="edge_E_in" to="edge_S_out" />
	<trip id="veh_173" type="DEFAULT_CAR" depart="599" from="edge_S_in" to="edge_N_out" />
	<trip id="veh_236" type="DEFAULT_CAR" depart="611" from="edge_E_in" to="edge_N_out" />
	<trip id="veh_329" type="DEFAULT_CAR" depart="616" from="edge_N_in" to="edge_S_out" />
	<trip id="veh_106" type="DEFAULT_CAR" depart="619" from="edge_W_in" to="edge_N_out" />
	<trip id="veh_136" type="DEFAULT_CAR" depart="620" from="edge_W_in" to="edge_N_out" />
	<trip id="veh_15" type="DEFAULT_CAR" depart="628" from="edge_W_in" to="edge_E_out" />
	<trip id="veh_75" type="DEFAULT_CAR" depart="630" from="edge_S_in" to="edge_N_out" />
	<trip id="veh_358" type="DEFAULT_CAR" depart="640" from="edge_E_in" to="edge_W_out" />
	<trip id="veh_42" type="DEFAULT_CAR" depart="642" from="edge_S_in" to="edge_N_out" />
	<trip id="veh_181" type="DEFAULT_CAR" depart="645" from="edge_W_in" to="edge_E_out" />
	<trip id="veh_142" type="DEFAULT_CAR" depart="647" from="edge_N_in" to="edge_N_out" />
	<trip id="veh_175" type="DEFAULT_CAR" depart="648" from="edge_W_in" to="edge_N_out" />
	<trip id="veh_214" type="DEFAULT_CAR" depart="648" from="edge_W_in" to="edge_N_out" />
	<trip id="veh_376" type="DEFAULT_CAR" depart="655" from="edge_W_in" to="edge_N_out" />
	<trip id="veh_62" type="DEFAULT_CAR" depart="656" from="edge_N_in" to="edge_E_out" />
	<trip id="veh_70" type="DEFAULT_CAR" depart="659" from="edge_E_in" to="edge_N_out" />
	<trip id="veh_375" type="DEFAULT_CAR" depart="665" from="edge_E_in" to="edge_E_out" />
	<trip id="veh_220" type="DEFAULT_CAR" depart="668" from="edge_S_in" to="edge_S_out" />
	<trip id="veh_123" type="DEFAULT_CAR" depart="671" from="edge_E_in" to="edge_W_out" />
	<trip id="veh_105" type="DEFAULT_CAR" depart="672" from="edge_E_in" to="edge_W_out" />
	<trip id="veh_143" type="DEFAULT_CAR" depart="674" from="edge_N_in" to="edge_S_out" />
	<trip id="veh_292" type="DEFAULT_CAR" depart="674" from="edge_N_in" to="edge_S_out" />
	<trip id="veh_341" type="DEFAULT_CAR" depart="685" from="edge_E_in" to="edge_W_out" />
	<trip id="veh_201" type="DEFAULT_CAR" depart="686" from="edge_E_in" to="edge_N_out" />
	<trip id="veh_19" type="DEFAULT_CAR" depart="688" from="edge_N_in" to="edge_E_out" />
	<trip id="veh_334" type="DEFAULT_CAR" depart="689" from="edge_E_in" to="edge_S_out" />
	<trip id="veh_97" type="DEFAULT_CAR" depart="690" from="edge_W_in" to="edge_N_out" />
	<trip id="veh_294" type="DEFAULT_CAR" depart="690" from="edge_W_in" to="edge_W_out" />
	<trip id="veh_174" type="DEFAULT_CAR" depart="694" from="edge_S_in" to="edge_W_out" />
	<trip id="veh_46" type="DEFAULT_CAR" depart="697" from="edge_E_in" to="edge_E_out" />
	<trip id="veh_133" type="DEFAULT_CAR" depart="700" from="edge_E_in" to="edge_W_out" />
	<trip id="veh_100" type="DEFAULT_CAR" depart="702" from="edge_W_in" to="edge_N_out" />
	<trip id="veh_152" type="DEFAULT_CAR" depart="714" from="edge_N_in" to="edge_E_out" />
	<trip id="veh_187" type="DEFAULT_CAR" depart="721" from="edge_S_in" to="edge_S_out" />
	<trip id="veh_114" type="DEFAULT_CAR" depart="722" from="edge_E_in" to="edge_E_out" />
	<trip id="veh_303" type="DEFAULT_CAR" depart="722" from="edge_S_in" to="edge_N_out" />
	<trip id="veh_10" type="DEFAULT_CAR" depart="731" from="edge_S_in" to="edge_W_out" />
	<trip id="veh_125" type="DEFAULT_CAR" depart="731" from="edge_W_in" to="edge_W_out" />
	<trip id="veh_83" type="DEFAULT_CAR" depart="734" from="edge_E_in" to="edge_E_out" />
	<trip id="veh_68" type="DEFAULT_CAR" depart="736" from="edge_W_in" to="edge_W_out" />
	<trip id="veh_245" type="DEFAULT_CAR" depart="738" from="edge_S_in" to="edge_N_out" />
	<trip id="veh_310" type="DEFAULT_CAR" depart="740" from="edge_E_in" to="edge_E_out" />
	<trip id="veh_171" type="DEFAULT_CAR" depart="745" from="edge_N_in" to="edge_N_out" />
	<trip id="veh_290" type="DEFAULT_CAR" depart="747" from="edge_N_in" to="edge_E_out" />
	<trip id="veh_154" type="DEFAULT_CAR" depart="748" from="edge_E_in" to="edge_E_out" />
	<trip id="veh_79" type="DEFAULT_CAR" depart="755" from="edge_N_in" to="edge_E_out" />
	<trip id="veh_366" type="DEFAULT_CAR" depart="756" from="edge_N_in" to="edge_E_out" />
	<trip id="veh_200" type="DEFAULT_CAR" depart="758" from="edge_N_in" to="edge_N_out" />
	<trip id="veh_306" type="DEFAULT_CAR" depart="764" from="edge_W_in" to="edge_E_out" />
	<trip id="veh_282" type="DEFAULT_CAR" depart="769" from="edge_S_in" to="edge_N_out" />
	<trip id="veh_176" type="DEFAULT_CAR" depart="770" from="edge_N_in" to="edge_W_out" />
	<trip id="veh_23" type="DEFAULT_CAR" depart="771" from="edge_W_in" to="edge_W_out" />
	<trip id="veh_250" type="DEFAULT_CAR" depart="771" from="edge_N_in" to="edge_E_out" />
	<trip id="veh_92" type="DEFAULT_CAR" depart="773" from="edge_N_in" to="edge_S_out" />
	<trip id="veh_330" type="DEFAULT_CAR" depart="775" from="edge_W_in" to="edge_E_out" />
	<trip id="veh_126" type="DEFAULT_CAR" depart="780" from="edge_E_in" to="edge_S_out" />
	<trip id="veh_71" type="DEFAULT_CAR" depart="782" from="edge_S_in" to="edge_W_out" />
	<trip id="veh_2" type="DEFAULT_CAR" depart="784" from="edge_W_in" to="edge_S_out" />
	<trip id="veh_167" type="DEFAULT_CAR" depart="784" from="edge_N_in" to="edge_E_out" />
	<trip id="veh_353" type="DEFAULT_CAR" depart="784" from="edge_W_in" to="edge_N_out" />
	<trip id="veh_182" type="DEFAULT_CAR" depart="786" from="edge_N_in" to="edge_N_out" />
	<trip id="veh_339" type="DEFAULT_CAR" depart="786" from="edge_E_in" to="edge_N_out" />
	<trip id="veh_301" type="DEFAULT_CAR" depart="790" from="edge_E_in" to="edge_E_out" />
	<trip id="veh_129" type="DEFAULT_CAR" depart="791" from="edge_S_in" to="edge_N_out" />
	<trip id="veh_45" type="DEFAULT_CAR" depart="792" from="edge_N_in" to="edge_N_out" />
	<trip id="veh_328" type="DEFAULT_CAR" depart="795" from="edge_W_in" to="edge_W_out" />
	<trip id="veh_81" type="DEFAULT_CAR" depart="796" from="edge_W_in" to="edge_N_out" />
	<trip id="veh_233" type="DEFAULT_CAR" depart="797" from="edge_W_in" to="edge_W_out" />
	<trip id="veh_139" type="DEFAULT_CAR" depart="802" from="edge_N_in" to="edge_W_out" />
	<trip id="veh_347" type="DEFAULT_CAR" depart="804" from="edge_N_in" to="edge_N_out" />
	<trip id="veh_61" type="DEFAULT_CAR" depart="805" from="edge_S_in" to="edge_N_out" />
	<trip id="veh_224" type="DEFAULT_CAR" depart="806" from="edge_E_in" to="edge_W_out" />
	<trip id="veh_88" type="DEFAULT_CAR" depart="808" from="edge_E_in" to="edge_E_out" />
	<trip id="veh_227" type="DEFAULT_CAR" depart="809" from="edge_N_in" to="edge_W_out" />
	<trip id="veh_242" type="DEFAULT_CAR" depart="811" from="edge_W_in" to="edge_S_out" />
	<trip id="veh_249" type="DEFAULT_CAR" depart="812" from="edge_W_in" to="edge_W_out" />
	<trip id="veh_209" type="DEFAULT_CAR" depart="815" from="edge_W_in" to="edge_W_out" />
	<trip id="veh_299" type="DEFAULT_CAR" depart="818" from="edge_S_in" to="edge_N_out" />
	<trip id="veh_255" type="DEFAULT_CAR" depart="820" from="edge_W_in" to="edge_W_out" />
	<trip id="veh_60" type="DEFAULT_CAR" depart="827" from="edge_E_in" to="edge_N_out" />
	<trip id="veh_166" type="DEFAULT_CAR" depart="831" from="edge_W_in" to="edge_S_out" />
	<trip id="veh_213" type="DEFAULT_CAR" depart="834" from="edge_W_in" to="edge_E_out" />
	<trip id="veh_48" type="DEFAULT_CAR" depart="836" from="edge_S_in" to="edge_E_out" />
	<trip id="veh_269" type="DEFAULT_CAR" depart="838" from="edge_W_in" to="edge_N_out" />
	<trip id="veh_391" type="DEFAULT_CAR" depart="846" from="edge_N_in" to="edge_N_out" />
	<trip id="veh_356" type="DEFAULT_CAR" depart="859" from="edge_W_in" to="edge_S_out" />
	<trip id="veh_394" type="DEFAULT_CAR" depart="860" from="edge_E_in" to="edge_N_out" />
	<trip id="veh_352" type="DEFAULT_CAR" depart="861" from="edge_N_in" to="edge_S_out" />
	<trip id="veh_235" type="DEFAULT_CAR" depart="863" from="edge_E_in" to="edge_E_out" />
	<trip id="veh_280" type="DEFAULT_CAR" depart="864" from="edge_W_in" to="edge_E_out" />
	<trip id="veh_29" type="DEFAULT_CAR" depart="865" from="edge_W_in" to="edge_S_out" />
	<trip id="veh_350" type="DEFAULT_CAR" depart="869" from="edge_S_in" to="edge_W_out" />
	<trip id="veh_359" type="DEFAULT_CAR" depart="871" from="edge_E_in" to="edge_E_out" />
	<trip id="veh_226" type="DEFAULT_CAR" depart="874" from="edge_N_in" to="edge_N_out" />
	<trip id="veh_12" type="DEFAULT_CAR" depart="878" from="edge_E_in" to="edge_S_out" />
	<trip id="veh_80" type="DEFAULT_CAR" depart="879" from="edge_W_in" to="edge_E_out" />
	<trip id="veh_94" type="DEFAULT_CAR" depart="882" from="edge_S_in" to="edge_W_out" />
	<trip id="veh_243" type="DEFAULT_CAR" depart="882" from="edge_E_in" to="edge_S_out" />
	<trip id="veh_28" type="DEFAULT_CAR" depart="883" from="edge_S_in" to="edge_N_out" />
	<trip id="veh_161" type="DEFAULT_CAR" depart="884" from="edge_W_in" to="edge_N_out" />
	<trip id="veh_326" type="DEFAULT_CAR" depart="886" from="edge_N_in" to="edge_S_out" />
	<trip id="veh_293" type="DEFAULT_CAR" depart="890" from="edge_E_in" to="edge_N_out" />
	<trip id="veh_153" type="DEFAULT_CAR" depart="891" from="edge_N_in" to="edge_W_out" />
	<trip id="veh_66" type="DEFAULT_CAR" depart="899" from="edge_E_in" to="edge_S_out" />
	<trip id="veh_135" type="DEFAULT_CAR" depart="907" from="edge_N_in" to="edge_S_out" />
	<trip id="veh_69" type="DEFAULT_CAR" depart="908" from="edge_E_in" to="edge_N_out" />
	<trip id="veh_320" type="DEFAULT_CAR" depart="908" from="edge_W_in" to="edge_N_out" />
	<trip id="veh_132" type="DEFAULT_CAR" depart="913" from="edge_E_in" to="edge_N_out" />
	<trip id="veh_229" type="DEFAULT_CAR" depart="914" from="edge_N_in" to="edge_E_out" />
	<trip id="veh_91" type="DEFAULT_CAR" depart="920" from="edge_W_in" to="edge_N_out" />
	<trip id="veh_193" type="DEFAULT_CAR" depart="922" from="edge_S_in" to="edge_W_out" />
	<trip id="veh_169" type="DEFAULT_CAR" depart="923" from="edge_N_in" to="edge_S_out" />
	<trip id="veh_59" type="DEFAULT_CAR" depart="927" from="edge_S_in" to="edge_W_out" />
	<trip id="veh_54" type="DEFAULT_CAR" depart="933" from="edge_W_in" to="edge_W_out" />
	<trip id="veh_364" type="DEFAULT_CAR" depart="936" from="edge_E_in" to="edge_W_out" />
	<trip id="veh_321" type="DEFAULT_CAR" depart="937" from="edge_S_in" to="edge_N_out" />
	<trip id="veh_188" type="DEFAULT_CAR" depart="940" from="edge_W_in" to="edge_N_out" />
	<trip id="veh_348" type="DEFAULT_CAR" depart="942" from="edge_W_in" to="edge_W_out" />
	<trip id="veh_85" type="DEFAULT_CAR" depart="943" from="edge_N_in" to="edge_W_out" />
	<trip id="veh_285" type="DEFAULT_CAR" depart="945" from="edge_S_in" to="edge_E_out" />
	<trip id="veh_313" type="DEFAULT_CAR" depart="948" from="edge_S_in" to="edge_S_out" />
	<trip id="veh_32" type="DEFAULT_CAR" depart="952" from="edge_S_in" to="edge_N_out" />
	<trip id="veh_140" type="DEFAULT_CAR" depart="952" from="edge_N_in" to="edge_W_out" />
	<trip id="veh_315" type="DEFAULT_CAR" depart="952" from="edge_E_in" to="edge_E_out" />
	<trip id="veh_210" type="DEFAULT_CAR" depart="955" from="edge_N_in" to="edge_W_out" />
	<trip id="veh_63" type="DEFAULT_CAR" depart="956" from="edge_N_in" to="edge_W_out" />
	<trip id="veh_368" type="DEFAULT_CAR" depart="957" from="edge_W_in" to="edge_S_out" />
	<trip id="veh_111" type="DEFAULT_CAR" depart="960" from="edge_E_in" to="edge_W_out" />
	<trip id="veh_228" type="DEFAULT_CAR" depart="961" from="edge_S_in" to="edge_W_out" />
	<trip id="veh_378" type="DEFAULT_CAR" depart="965" from="edge_N_in" to="edge_N_out" />
	<trip id="veh_331" type="DEFAULT_CAR" depart="971" from="edge_E_in" to="edge_W_out" />
	<trip id="veh_385" type="DEFAULT_CAR" depart="985" from="edge_E_in" to="edge_W_out" />
	<trip id="veh_355" type="DEFAULT_CAR" depart="987" from="edge_S_in" to="edge_S_out" />
	<trip id="veh_96" type="DEFAULT_CAR" depart="992" from="edge_N_in" to="edge_E_out" />
	<trip id="veh_144" type="DEFAULT_CAR" depart="993" from="edge_N_in" to="edge_W_out" />
	<trip id="veh_89" type="DEFAULT_CAR" depart="995" from="edge_S_in" to="edge_S_out" />
	<trip id="veh_202" type="DEFAULT_CAR" depart="995" from="edge_W_in" to="edge_W_out" />
	<trip id="veh_284" type="DEFAULT_CAR" depart="995" from="edge_W_in" to="edge_W_out" />
	<trip id="veh_373" type="DEFAULT_CAR" depart="995" from="edge_E_in" to="edge_W_out" />
	<trip id="veh_300" type="DEFAULT_CAR" depart="998" from="edge_E_in" to="edge_W_out" />
	<trip id="veh_26" type="DEFAULT_CAR" depart="1001" from="edge_E_in" to="edge_S_out" />
	<trip id="veh_397" type="DEFAULT_CAR" depart="1006" from="edge_S_in" to="edge_N_out" />
	<trip id="veh_190" type="DEFAULT_CAR" depart="1009" from="edge_W_in" to="edge_S_out" />
	<trip id="veh_119" type="DEFAULT_CAR" depart="1032" from="edge_W_in" to="edge_N_out" />
	<trip id="veh_345" type="DEFAULT_CAR" depart="1035" from="edge_E_in" to="edge_E_out" />
	<trip id="veh_225" type="DEFAULT_CAR" depart="1036" from="edge_E_in" to="edge_E_out" />
	<trip id="veh_57" type="DEFAULT_CAR" depart="1042" from="edge_N_in" to="edge_W_out" />